CPDS_validation_cosim/Distribution/Bus11/IEEE34Bus/ieee34-1_VLN_elem.Txt

NODE-GROUND VOLTAGES BY CIRCUIT ELEMENT

Power Delivery Elements

Bus       (node ref)  Phase    Magnitude, kV (pu)    Angle

ELEMENT = "Vsource.SOURCE"
SOURCEBUS  (  1)    1           41.829 (    1.05) /_    0.0
SOURCEBUS  (  2)    2           41.829 (    1.05) /_ -120.0
SOURCEBUS  (  3)    3           41.829 (    1.05) /_  120.0
------------
SOURCEBUS  (  0)    0                0 (       0) /_    0.0
SOURCEBUS  (  0)    0                0 (       0) /_    0.0
SOURCEBUS  (  0)    0                0 (       0) /_    0.0

ELEMENT = "Transformer.SUBXF"
SOURCEBUS  (  1)    1           41.829 (    1.05) /_    0.0
SOURCEBUS  (  2)    2           41.829 (    1.05) /_ -120.0
SOURCEBUS  (  3)    3           41.829 (    1.05) /_  120.0
SOURCEBUS  (  0)    0                0 (       0) /_    0.0
------------
800        (  4)    1           15.095 (    1.05) /_  -30.0
800        (  5)    2           15.095 (    1.05) /_ -150.0
800        (  6)    3           15.095 (    1.05) /_   90.0
800        (  0)    0                0 (       0) /_    0.0

ELEMENT = "Line.L1"
800        (  4)    1           15.095 (    1.05) /_  -30.0
800        (  5)    2           15.095 (    1.05) /_ -150.0
800        (  6)    3           15.095 (    1.05) /_   90.0
------------
802        (  7)    1           15.058 (   1.047) /_  -30.1
802        (  8)    2           15.072 (   1.048) /_ -150.1
802        (  9)    3           15.073 (   1.048) /_   89.9

ELEMENT = "Line.L2"
802        (  7)    1           15.058 (   1.047) /_  -30.1
802        (  8)    2           15.072 (   1.048) /_ -150.1
802        (  9)    3           15.073 (   1.048) /_   89.9
------------
806        ( 10)    1           15.033 (   1.046) /_  -30.1
806        ( 11)    2           15.058 (   1.047) /_ -150.1
806        ( 12)    3           15.058 (   1.047) /_   89.9

ELEMENT = "Line.L3"
806        ( 10)    1           15.033 (   1.046) /_  -30.1
806        ( 11)    2           15.058 (   1.047) /_ -150.1
806        ( 12)    3           15.058 (   1.047) /_   89.9
------------
808        ( 13)    1           14.571 (   1.014) /_  -30.8
808        ( 14)    2             14.8 (   1.029) /_ -151.0
808        ( 15)    3           14.796 (   1.029) /_   89.3

ELEMENT = "Line.L4"
808        ( 14)    2             14.8 (   1.029) /_ -151.0
------------
810        ( 16)    2           14.798 (   1.029) /_ -151.0

ELEMENT = "Line.L5"
808        ( 13)    1           14.571 (   1.014) /_  -30.8
808        ( 14)    2             14.8 (   1.029) /_ -151.0
808        ( 15)    3           14.796 (   1.029) /_   89.3
------------
812        ( 17)    1           14.034 (  0.9762) /_  -31.6
812        ( 18)    2           14.516 (    1.01) /_ -152.0
812        ( 19)    3           14.485 (   1.008) /_   88.6

ELEMENT = "Line.L6"
812        ( 17)    1           14.034 (  0.9762) /_  -31.6
812        ( 18)    2           14.516 (    1.01) /_ -152.0
812        ( 19)    3           14.485 (   1.008) /_   88.6
------------
814        ( 20)    1           13.607 (  0.9465) /_  -32.3
814        ( 21)    2           14.293 (  0.9942) /_ -152.8
814        ( 22)    3           14.237 (  0.9903) /_   88.1

ELEMENT = "Line.L7"
814R       ( 23)    1           14.795 (   1.029) /_  -32.4
814R       ( 24)    2           14.737 (   1.025) /_ -152.8
814R       ( 25)    3            14.68 (   1.021) /_   88.0
------------
850        ( 26)    1           14.794 (   1.029) /_  -32.4
850        ( 27)    2           14.737 (   1.025) /_ -152.8
850        ( 28)    3            14.68 (   1.021) /_   88.0

ELEMENT = "Line.L8"
816        ( 29)    1           14.789 (   1.029) /_  -32.4
------------
818        ( 30)    1           14.776 (   1.028) /_  -32.4

ELEMENT = "Line.L9"
816        ( 29)    1           14.789 (   1.029) /_  -32.4
816        ( 31)    2           14.733 (   1.025) /_ -152.8
816        ( 32)    3           14.676 (   1.021) /_   88.0
------------
824        ( 33)    1            14.66 (    1.02) /_  -32.5
824        ( 34)    2           14.596 (   1.015) /_ -153.0
824        ( 35)    3           14.557 (   1.013) /_   87.8

ELEMENT = "Line.L10"
818        ( 30)    1           14.776 (   1.028) /_  -32.4
------------
820        ( 36)    1           14.438 (   1.004) /_  -32.4

ELEMENT = "Line.L11"
820        ( 36)    1           14.438 (   1.004) /_  -32.4
------------
822        ( 37)    1           14.395 (   1.001) /_  -32.4

ELEMENT = "Line.L12"
824        ( 34)    2           14.596 (   1.015) /_ -153.0
------------
826        ( 38)    2           14.593 (   1.015) /_ -153.0

ELEMENT = "Line.L13"
824        ( 33)    1            14.66 (    1.02) /_  -32.5
824        ( 34)    2           14.596 (   1.015) /_ -153.0
824        ( 35)    3           14.557 (   1.013) /_   87.8
------------
828        ( 39)    1           14.649 (   1.019) /_  -32.5
828        ( 40)    2           14.586 (   1.015) /_ -153.0
828        ( 41)    3           14.547 (   1.012) /_   87.8

ELEMENT = "Line.L14"
828        ( 39)    1           14.649 (   1.019) /_  -32.5
828        ( 40)    2           14.586 (   1.015) /_ -153.0
828        ( 41)    3           14.547 (   1.012) /_   87.8
------------
830        ( 42)    1           14.393 (   1.001) /_  -32.8
830        ( 43)    2            14.34 (  0.9975) /_ -153.5
830        ( 44)    3           14.304 (   0.995) /_   87.3

ELEMENT = "Line.L15"
830        ( 42)    1           14.393 (   1.001) /_  -32.8
830        ( 43)    2            14.34 (  0.9975) /_ -153.5
830        ( 44)    3           14.304 (   0.995) /_   87.3
------------
854        ( 45)    1           14.387 (   1.001) /_  -32.8
854        ( 46)    2           14.334 (  0.9971) /_ -153.5
854        ( 47)    3           14.298 (  0.9946) /_   87.3

ELEMENT = "Line.L16"
832        ( 48)    1           15.076 (   1.049) /_  -33.3
832        ( 49)    2           15.034 (   1.046) /_ -154.3
832        ( 50)    3           14.914 (   1.037) /_   86.4
------------
858        ( 51)    1           15.043 (   1.046) /_  -33.3
858        ( 52)    2           15.001 (   1.043) /_ -154.4
858        ( 53)    3           14.883 (   1.035) /_   86.3

ELEMENT = "Line.L17"
834        ( 54)    1           15.004 (   1.044) /_  -33.4
834        ( 55)    2           14.962 (   1.041) /_ -154.5
834        ( 56)    3           14.847 (   1.033) /_   86.1
------------
860        ( 57)    1           14.998 (   1.043) /_  -33.4
860        ( 58)    2           14.956 (    1.04) /_ -154.5
860        ( 59)    3           14.841 (   1.032) /_   86.1

ELEMENT = "Line.L18"
834        ( 54)    1           15.004 (   1.044) /_  -33.4
834        ( 55)    2           14.962 (   1.041) /_ -154.5
834        ( 56)    3           14.847 (   1.033) /_   86.1
------------
842        ( 60)    1           15.004 (   1.044) /_  -33.4
842        ( 61)    2           14.961 (   1.041) /_ -154.5
842        ( 62)    3           14.846 (   1.033) /_   86.1

ELEMENT = "Line.L19"
836        ( 63)    1           14.995 (   1.043) /_  -33.4
836        ( 64)    2           14.951 (    1.04) /_ -154.5
836        ( 65)    3           14.839 (   1.032) /_   86.1
------------
840        ( 66)    1           14.995 (   1.043) /_  -33.4
840        ( 67)    2            14.95 (    1.04) /_ -154.5
840        ( 68)    3           14.839 (   1.032) /_   86.1

ELEMENT = "Line.L20"
836        ( 63)    1           14.995 (   1.043) /_  -33.4
836        ( 64)    2           14.951 (    1.04) /_ -154.5
836        ( 65)    3           14.839 (   1.032) /_   86.1
------------
862        ( 69)    1           14.995 (   1.043) /_  -33.4
862        ( 70)    2            14.95 (    1.04) /_ -154.5
862        ( 71)    3           14.839 (   1.032) /_   86.1

ELEMENT = "Line.L21"
842        ( 60)    1           15.004 (   1.044) /_  -33.4
842        ( 61)    2           14.961 (   1.041) /_ -154.5
842        ( 62)    3           14.846 (   1.033) /_   86.1
------------
844        ( 72)    1               15 (   1.043) /_  -33.4
844        ( 73)    2           14.956 (    1.04) /_ -154.5
844        ( 74)    3           14.843 (   1.032) /_   86.1

ELEMENT = "Line.L22"
844        ( 72)    1               15 (   1.043) /_  -33.4
844        ( 73)    2           14.956 (    1.04) /_ -154.5
844        ( 74)    3           14.843 (   1.032) /_   86.1
------------
846        ( 75)    1           15.004 (   1.044) /_  -33.5
846        ( 76)    2           14.956 (    1.04) /_ -154.6
846        ( 77)    3           14.847 (   1.033) /_   86.0

ELEMENT = "Line.L23"
846        ( 75)    1           15.004 (   1.044) /_  -33.5
846        ( 76)    2           14.956 (    1.04) /_ -154.6
846        ( 77)    3           14.847 (   1.033) /_   86.0
------------
848        ( 78)    1           15.005 (   1.044) /_  -33.5
848        ( 79)    2           14.957 (    1.04) /_ -154.6
848        ( 80)    3           14.847 (   1.033) /_   86.0

ELEMENT = "Line.L24"
850        ( 26)    1           14.794 (   1.029) /_  -32.4
850        ( 27)    2           14.737 (   1.025) /_ -152.8
850        ( 28)    3            14.68 (   1.021) /_   88.0
------------
816        ( 29)    1           14.789 (   1.029) /_  -32.4
816        ( 31)    2           14.733 (   1.025) /_ -152.8
816        ( 32)    3           14.676 (   1.021) /_   88.0

ELEMENT = "Line.L25"
852R       ( 81)    1           15.076 (   1.049) /_  -33.3
852R       ( 82)    2           15.034 (   1.046) /_ -154.3
852R       ( 83)    3           14.914 (   1.037) /_   86.4
------------
832        ( 48)    1           15.076 (   1.049) /_  -33.3
832        ( 49)    2           15.034 (   1.046) /_ -154.3
832        ( 50)    3           14.914 (   1.037) /_   86.4

ELEMENT = "Transformer.XFM1"
832        ( 48)    1           15.076 (   1.049) /_  -33.3
832        ( 49)    2           15.034 (   1.046) /_ -154.3
832        ( 50)    3           14.914 (   1.037) /_   86.4
832        (  0)    0                0 (       0) /_    0.0
------------
888        ( 84)    1           2.4314 (   1.012) /_  -34.8
888        ( 85)    2           2.4248 (    1.01) /_ -155.8
888        ( 86)    3           2.4051 (   1.001) /_   84.9
888        (  0)    0                0 (       0) /_    0.0

ELEMENT = "Line.L26"
854        ( 46)    2           14.334 (  0.9971) /_ -153.5
------------
856        ( 87)    2           14.332 (   0.997) /_ -153.5

ELEMENT = "Line.L27"
854        ( 45)    1           14.387 (   1.001) /_  -32.8
854        ( 46)    2           14.334 (  0.9971) /_ -153.5
854        ( 47)    3           14.298 (  0.9946) /_   87.3
------------
852        ( 88)    1           13.945 (    0.97) /_  -33.3
852        ( 89)    2           13.906 (  0.9673) /_ -154.3
852        ( 90)    3           13.875 (  0.9652) /_   86.4

ELEMENT = "Line.L28"
858        ( 51)    1           15.043 (   1.046) /_  -33.3
------------
864        ( 91)    1           15.043 (   1.046) /_  -33.3

ELEMENT = "Line.L29"
858        ( 51)    1           15.043 (   1.046) /_  -33.3
858        ( 52)    2           15.001 (   1.043) /_ -154.4
858        ( 53)    3           14.883 (   1.035) /_   86.3
------------
834        ( 54)    1           15.004 (   1.044) /_  -33.4
834        ( 55)    2           14.962 (   1.041) /_ -154.5
834        ( 56)    3           14.847 (   1.033) /_   86.1

ELEMENT = "Line.L30"
860        ( 57)    1           14.998 (   1.043) /_  -33.4
860        ( 58)    2           14.956 (    1.04) /_ -154.5
860        ( 59)    3           14.841 (   1.032) /_   86.1
------------
836        ( 63)    1           14.995 (   1.043) /_  -33.4
836        ( 64)    2           14.951 (    1.04) /_ -154.5
836        ( 65)    3           14.839 (   1.032) /_   86.1

ELEMENT = "Line.L31"
862        ( 70)    2            14.95 (    1.04) /_ -154.5
------------
838        ( 92)    2           14.948 (    1.04) /_ -154.5

ELEMENT = "Line.L32"
888        ( 84)    1           2.4314 (   1.012) /_  -34.8
888        ( 85)    2           2.4248 (    1.01) /_ -155.8
888        ( 86)    3           2.4051 (   1.001) /_   84.9
------------
890        ( 93)    1           2.2321 (  0.9294) /_  -35.3
890        ( 94)    2           2.2451 (  0.9348) /_ -156.9
890        ( 95)    3           2.2078 (  0.9192) /_   84.0

ELEMENT = "Capacitor.C844"
844        ( 72)    1               15 (   1.043) /_  -33.4
844        ( 73)    2           14.956 (    1.04) /_ -154.5
844        ( 74)    3           14.843 (   1.032) /_   86.1
------------
844        (  0)    0                0 (       0) /_    0.0
844        (  0)    0                0 (       0) /_    0.0
844        (  0)    0                0 (       0) /_    0.0

ELEMENT = "Capacitor.C848"
848        ( 78)    1           15.005 (   1.044) /_  -33.5
848        ( 79)    2           14.957 (    1.04) /_ -154.6
848        ( 80)    3           14.847 (   1.033) /_   86.0
------------
848        (  0)    0                0 (       0) /_    0.0
848        (  0)    0                0 (       0) /_    0.0
848        (  0)    0                0 (       0) /_    0.0

ELEMENT = "Transformer.REG1A"
814        ( 20)    1           13.607 (  0.9465) /_  -32.3
814        (  0)    0                0 (       0) /_    0.0
------------
814R       ( 23)    1           14.795 (   1.029) /_  -32.4
814R       (  0)    0                0 (       0) /_    0.0

ELEMENT = "Transformer.REG1B"
814        ( 21)    2           14.293 (  0.9942) /_ -152.8
814        (  0)    0                0 (       0) /_    0.0
------------
814R       ( 24)    2           14.737 (   1.025) /_ -152.8
814R       (  0)    0                0 (       0) /_    0.0

ELEMENT = "Transformer.REG1C"
814        ( 22)    3           14.237 (  0.9903) /_   88.1
814        (  0)    0                0 (       0) /_    0.0
------------
814R       ( 25)    3            14.68 (   1.021) /_   88.0
814R       (  0)    0                0 (       0) /_    0.0

ELEMENT = "Transformer.REG2A"
852        ( 88)    1           13.945 (    0.97) /_  -33.3
852        (  0)    0                0 (       0) /_    0.0
------------
852R       ( 81)    1           15.076 (   1.049) /_  -33.3
852R       (  0)    0                0 (       0) /_    0.0

ELEMENT = "Transformer.REG2B"
852        ( 89)    2           13.906 (  0.9673) /_ -154.3
852        (  0)    0                0 (       0) /_    0.0
------------
852R       ( 82)    2           15.034 (   1.046) /_ -154.3
852R       (  0)    0                0 (       0) /_    0.0

ELEMENT = "Transformer.REG2C"
852        ( 90)    3           13.875 (  0.9652) /_   86.4
852        (  0)    0                0 (       0) /_    0.0
------------
852R       ( 83)    3           14.914 (   1.037) /_   86.4
852R       (  0)    0                0 (       0) /_    0.0

= = = = = = = = = = = = = = = = = = =  = = = = = = = = = = =  = =

Power Conversion Elements

Bus       (node ref)  Phase    Magnitude, kV (pu)    Angle

ELEMENT = "Load.S860"
860        ( 57)    1           14.998 (   1.043) /_  -33.4
860        ( 58)    2           14.956 (    1.04) /_ -154.5
860        ( 59)    3           14.841 (   1.032) /_   86.1
860        (  0)    0                0 (       0) /_    0.0

ELEMENT = "Load.S840"
840        ( 66)    1           14.995 (   1.043) /_  -33.4
840        ( 67)    2            14.95 (    1.04) /_ -154.5
840        ( 68)    3           14.839 (   1.032) /_   86.1
840        (  0)    0                0 (       0) /_    0.0

ELEMENT = "Load.S844"
844        ( 72)    1               15 (   1.043) /_  -33.4
844        ( 73)    2           14.956 (    1.04) /_ -154.5
844        ( 74)    3           14.843 (   1.032) /_   86.1
844        (  0)    0                0 (       0) /_    0.0

ELEMENT = "Load.S848"
848        ( 78)    1           15.005 (   1.044) /_  -33.5
848        ( 79)    2           14.957 (    1.04) /_ -154.6
848        ( 80)    3           14.847 (   1.033) /_   86.0

ELEMENT = "Load.S830"
830        ( 42)    1           14.393 (   1.001) /_  -32.8
830        ( 43)    2            14.34 (  0.9975) /_ -153.5
830        ( 44)    3           14.304 (   0.995) /_   87.3
830        (  0)    0                0 (       0) /_    0.0

ELEMENT = "Load.S890"
890        ( 93)    1           2.2321 (  0.9294) /_  -35.3
890        ( 94)    2           2.2451 (  0.9348) /_ -156.9
890        ( 95)    3           2.2078 (  0.9192) /_   84.0

ELEMENT = "Load.D802_806SB"
802        (  8)    2           15.072 (   1.048) /_ -150.1
802        (  0)    0                0 (       0) /_    0.0

ELEMENT = "Load.D802_806RB"
806        ( 11)    2           15.058 (   1.047) /_ -150.1
806        (  0)    0                0 (       0) /_    0.0

ELEMENT = "Load.D802_806SC"
802        (  9)    3           15.073 (   1.048) /_   89.9
802        (  0)    0                0 (       0) /_    0.0

ELEMENT = "Load.D802_806RC"
806        ( 12)    3           15.058 (   1.047) /_   89.9
806        (  0)    0                0 (       0) /_    0.0

ELEMENT = "Load.D808_810SB"
808        ( 14)    2             14.8 (   1.029) /_ -151.0
808        (  0)    0                0 (       0) /_    0.0

ELEMENT = "Load.D808_810RB"
810        ( 16)    2           14.798 (   1.029) /_ -151.0
810        (  0)    0                0 (       0) /_    0.0

ELEMENT = "Load.D818_820SA"
818        ( 30)    1           14.776 (   1.028) /_  -32.4
818        (  0)    0                0 (       0) /_    0.0

ELEMENT = "Load.D818_820RA"
820        ( 36)    1           14.438 (   1.004) /_  -32.4
820        (  0)    0                0 (       0) /_    0.0

ELEMENT = "Load.D820_822SA"
820        ( 36)    1           14.438 (   1.004) /_  -32.4
820        (  0)    0                0 (       0) /_    0.0

ELEMENT = "Load.D820_822RA"
822        ( 37)    1           14.395 (   1.001) /_  -32.4
822        (  0)    0                0 (       0) /_    0.0

ELEMENT = "Load.D816_824SB"
816        ( 31)    2           14.733 (   1.025) /_ -152.8
816        (  0)    0                0 (       0) /_    0.0

ELEMENT = "Load.D816_824RB"
824        ( 34)    2           14.596 (   1.015) /_ -153.0
824        (  0)    0                0 (       0) /_    0.0

ELEMENT = "Load.D824_826SB"
824        ( 34)    2           14.596 (   1.015) /_ -153.0
824        (  0)    0                0 (       0) /_    0.0

ELEMENT = "Load.D824_826RB"
826        ( 38)    2           14.593 (   1.015) /_ -153.0
826        (  0)    0                0 (       0) /_    0.0

ELEMENT = "Load.D824_828SC"
824        ( 35)    3           14.557 (   1.013) /_   87.8
824        (  0)    0                0 (       0) /_    0.0

ELEMENT = "Load.D824_828RC"
828        ( 41)    3           14.547 (   1.012) /_   87.8
828        (  0)    0                0 (       0) /_    0.0

ELEMENT = "Load.D828_830SA"
828        ( 39)    1           14.649 (   1.019) /_  -32.5
828        (  0)    0                0 (       0) /_    0.0

ELEMENT = "Load.D828_830RA"
830        ( 42)    1           14.393 (   1.001) /_  -32.8
830        (  0)    0                0 (       0) /_    0.0

ELEMENT = "Load.D854_856SB"
854        ( 46)    2           14.334 (  0.9971) /_ -153.5
854        (  0)    0                0 (       0) /_    0.0

ELEMENT = "Load.D854_856RB"
856        ( 87)    2           14.332 (   0.997) /_ -153.5
856        (  0)    0                0 (       0) /_    0.0

ELEMENT = "Load.D832_858SA"
832        ( 48)    1           15.076 (   1.049) /_  -33.3
832        (  0)    0                0 (       0) /_    0.0

ELEMENT = "Load.D832_858RA"
858        ( 51)    1           15.043 (   1.046) /_  -33.3
858        (  0)    0                0 (       0) /_    0.0

ELEMENT = "Load.D832_858SB"
832        ( 49)    2           15.034 (   1.046) /_ -154.3
832        (  0)    0                0 (       0) /_    0.0

ELEMENT = "Load.D832_858RB"
858        ( 52)    2           15.001 (   1.043) /_ -154.4
858        (  0)    0                0 (       0) /_    0.0

ELEMENT = "Load.D832_858SC"
832        ( 50)    3           14.914 (   1.037) /_   86.4
832        (  0)    0                0 (       0) /_    0.0

ELEMENT = "Load.D832_858RC"
858        ( 53)    3           14.883 (   1.035) /_   86.3
858        (  0)    0                0 (       0) /_    0.0

ELEMENT = "Load.D858_864SB"
858        ( 51)    1           15.043 (   1.046) /_  -33.3
858        (  0)    0                0 (       0) /_    0.0

ELEMENT = "Load.D858_864RB"
864        ( 91)    1           15.043 (   1.046) /_  -33.3
864        (  0)    0                0 (       0) /_    0.0

ELEMENT = "Load.D858_834SA"
858        ( 51)    1           15.043 (   1.046) /_  -33.3
858        ( 52)    2           15.001 (   1.043) /_ -154.4

ELEMENT = "Load.D858_834RA"
834        ( 54)    1           15.004 (   1.044) /_  -33.4
834        ( 55)    2           14.962 (   1.041) /_ -154.5

ELEMENT = "Load.D858_834SB"
858        ( 52)    2           15.001 (   1.043) /_ -154.4
858        ( 53)    3           14.883 (   1.035) /_   86.3

ELEMENT = "Load.D858_834RB"
834        ( 55)    2           14.962 (   1.041) /_ -154.5
834        ( 56)    3           14.847 (   1.033) /_   86.1

ELEMENT = "Load.D858_834SC"
858        ( 53)    3           14.883 (   1.035) /_   86.3
858        ( 51)    1           15.043 (   1.046) /_  -33.3

ELEMENT = "Load.D858_834RC"
834        ( 56)    3           14.847 (   1.033) /_   86.1
834        ( 54)    1           15.004 (   1.044) /_  -33.4

ELEMENT = "Load.D834_860SA"
834        ( 54)    1           15.004 (   1.044) /_  -33.4
834        ( 55)    2           14.962 (   1.041) /_ -154.5

ELEMENT = "Load.D834_860RA"
860        ( 57)    1           14.998 (   1.043) /_  -33.4
860        ( 58)    2           14.956 (    1.04) /_ -154.5

ELEMENT = "Load.D834_860SB"
834        ( 55)    2           14.962 (   1.041) /_ -154.5
834        ( 56)    3           14.847 (   1.033) /_   86.1

ELEMENT = "Load.D834_860RB"
860        ( 58)    2           14.956 (    1.04) /_ -154.5
860        ( 59)    3           14.841 (   1.032) /_   86.1

ELEMENT = "Load.D834_860SC"
834        ( 56)    3           14.847 (   1.033) /_   86.1
834        ( 54)    1           15.004 (   1.044) /_  -33.4

ELEMENT = "Load.D834_860RC"
860        ( 59)    3           14.841 (   1.032) /_   86.1
860        ( 57)    1           14.998 (   1.043) /_  -33.4

ELEMENT = "Load.D860_836SA"
860        ( 57)    1           14.998 (   1.043) /_  -33.4
860        ( 58)    2           14.956 (    1.04) /_ -154.5

ELEMENT = "Load.D860_836RA"
836        ( 63)    1           14.995 (   1.043) /_  -33.4
836        ( 64)    2           14.951 (    1.04) /_ -154.5

ELEMENT = "Load.D860_836SB"
860        ( 58)    2           14.956 (    1.04) /_ -154.5
860        ( 59)    3           14.841 (   1.032) /_   86.1

ELEMENT = "Load.D860_836RB"
836        ( 64)    2           14.951 (    1.04) /_ -154.5
836        ( 65)    3           14.839 (   1.032) /_   86.1

ELEMENT = "Load.D860_836SC"
860        ( 59)    3           14.841 (   1.032) /_   86.1
860        ( 57)    1           14.998 (   1.043) /_  -33.4

ELEMENT = "Load.D860_836RC"
836        ( 65)    3           14.839 (   1.032) /_   86.1
836        ( 63)    1           14.995 (   1.043) /_  -33.4

ELEMENT = "Load.D836_840SA"
836        ( 63)    1           14.995 (   1.043) /_  -33.4
836        ( 64)    2           14.951 (    1.04) /_ -154.5

ELEMENT = "Load.D836_840RA"
840        ( 66)    1           14.995 (   1.043) /_  -33.4
840        ( 67)    2            14.95 (    1.04) /_ -154.5

ELEMENT = "Load.D836_840SB"
836        ( 64)    2           14.951 (    1.04) /_ -154.5
836        ( 65)    3           14.839 (   1.032) /_   86.1

ELEMENT = "Load.D836_840RB"
840        ( 67)    2            14.95 (    1.04) /_ -154.5
840        ( 68)    3           14.839 (   1.032) /_   86.1

ELEMENT = "Load.D862_838SB"
862        ( 70)    2            14.95 (    1.04) /_ -154.5
862        (  0)    0                0 (       0) /_    0.0

ELEMENT = "Load.D862_838RB"
838        ( 92)    2           14.948 (    1.04) /_ -154.5
838        (  0)    0                0 (       0) /_    0.0

ELEMENT = "Load.D842_844SA"
842        ( 60)    1           15.004 (   1.044) /_  -33.4
842        (  0)    0                0 (       0) /_    0.0

ELEMENT = "Load.D842_844RA"
844        ( 72)    1               15 (   1.043) /_  -33.4
844        (  0)    0                0 (       0) /_    0.0

ELEMENT = "Load.D844_846SB"
844        ( 73)    2           14.956 (    1.04) /_ -154.5
844        (  0)    0                0 (       0) /_    0.0

ELEMENT = "Load.D844_846RB"
846        ( 76)    2           14.956 (    1.04) /_ -154.6
846        (  0)    0                0 (       0) /_    0.0

ELEMENT = "Load.D844_846SC"
844        ( 74)    3           14.843 (   1.032) /_   86.1
844        (  0)    0                0 (       0) /_    0.0

ELEMENT = "Load.D844_846RC"
846        ( 77)    3           14.847 (   1.033) /_   86.0
846        (  0)    0                0 (       0) /_    0.0

ELEMENT = "Load.D846_848SB"
846        ( 76)    2           14.956 (    1.04) /_ -154.6
846        (  0)    0                0 (       0) /_    0.0

ELEMENT = "Load.D846_848RB"
848        ( 79)    2           14.957 (    1.04) /_ -154.6
848        (  0)    0                0 (       0) /_    0.0

